Version 4
SHEET 1 1028 680
WIRE 816 0 352 0
WIRE 352 16 352 0
WIRE 352 16 208 16
WIRE -432 32 -512 32
WIRE 816 32 816 0
WIRE -432 48 -432 32
WIRE -336 48 -432 48
WIRE 208 48 208 16
WIRE 208 48 -224 48
WIRE 480 48 272 48
WIRE 576 48 480 48
WIRE -48 80 -224 80
WIRE -336 112 -336 80
WIRE -336 112 -512 112
WIRE 816 128 816 112
WIRE -512 144 -512 112
WIRE 352 144 352 16
WIRE 272 160 272 48
WIRE 320 160 272 160
WIRE 480 176 480 112
WIRE 480 176 384 176
WIRE 576 176 576 128
WIRE 576 176 480 176
WIRE 656 176 576 176
WIRE 784 176 736 176
WIRE 880 176 784 176
WIRE -112 192 -208 192
WIRE -48 192 -48 80
WIRE -16 192 -48 192
WIRE 80 192 64 192
WIRE 192 192 80 192
WIRE 320 192 192 192
WIRE 80 224 80 192
WIRE 192 224 192 192
WIRE 272 224 272 160
WIRE 784 240 784 176
WIRE -208 320 -208 272
WIRE 80 320 80 288
WIRE 80 320 -208 320
WIRE 192 320 192 304
WIRE 192 320 80 320
WIRE 272 320 272 304
WIRE 272 320 192 320
WIRE 352 320 352 208
WIRE 352 320 272 320
WIRE 784 320 784 304
WIRE 784 320 352 320
WIRE 352 352 352 320
FLAG 816 128 0
FLAG 352 352 0
FLAG -512 144 0
FLAG 880 176 ADC
SYMBOL capteur_graphite -288 64 R0
SYMATTR InstName X1
SYMBOL cap -48 176 R90
WINDOW 0 0 32 VBottom 2
WINDOW 3 32 32 VTop 2
SYMATTR InstName C5
SYMATTR Value 1p
SYMBOL voltage -208 176 R0
WINDOW 123 0 0 Left 0
WINDOW 39 0 0 Left 0
SYMATTR InstName V1
SYMATTR Value SINE(0 325 50)
SYMBOL res 80 176 R90
WINDOW 0 0 56 VBottom 2
WINDOW 3 32 56 VTop 2
SYMATTR InstName R5
SYMATTR Value 10k
SYMBOL res 208 320 R180
WINDOW 0 36 76 Left 2
WINDOW 3 36 40 Left 2
SYMATTR InstName R1
SYMATTR Value 100k
SYMBOL res 288 320 R180
WINDOW 0 36 76 Left 2
WINDOW 3 36 40 Left 2
SYMATTR InstName R2
SYMATTR Value {R2}
SYMBOL cap 64 224 R0
WINDOW 3 26 -15 Left 2
SYMATTR Value 100n
SYMATTR InstName C1
SYMBOL OpAmps\\LTC1050 352 112 R0
SYMATTR InstName U1
SYMBOL cap 464 48 R0
SYMATTR InstName C3
SYMATTR Value {C3}
SYMBOL res 560 32 R0
SYMATTR InstName R4
SYMATTR Value 100k
SYMBOL res 752 160 R90
WINDOW 0 0 56 VBottom 2
WINDOW 3 32 56 VTop 2
SYMATTR InstName R6
SYMATTR Value 1k
SYMBOL cap 768 240 R0
SYMATTR InstName C2
SYMATTR Value 100n
SYMBOL voltage 816 16 R0
WINDOW 123 0 0 Left 0
WINDOW 39 0 0 Left 0
SYMATTR InstName V2
SYMATTR Value 5
SYMBOL voltage -512 16 R0
WINDOW 123 24 124 Left 2
WINDOW 39 0 0 Left 0
SYMATTR Value2 AC 1
SYMATTR InstName V3
SYMATTR Value PULSE(0 1 0.2 0.1 0.1 2)
TEXT -304 384 Left 2 !.tran 5
TEXT -296 416 Left 2 !.step param C3 0.5” 2” 0.5”
TEXT -280 448 Left 2 !.step param R3 0.5k 2k 0.5k
